test/data/matpower/case6_fr_lit.m
% Garver system - Transmission Network Estimation Using Linear Programming, IEEE trans. on power appratus and sys
% Power system transmission network expansion planning using AC model by Rider, MJ and Garcia, AV and Romero, R
function mpc = case6
mpc.version = '2';
mpc.baseMVA = 100.0;

%% bus data
%	bus_i	type	Pd	Qd	Gs	Bs	area	Vm      Va	baseKV	zone	Vmax	Vmin
mpc.bus = [
	1	 3	 80	   16	 0.0	 0.0	  1	    1.10000	   -0.00000	   240.0	 1	    1.05000	    0.95000;
	2	 1	 240	 48  0.0	 0.0	  1	    0.92617	    7.25883	   240.0	 1	    1.05000	    0.95000;
	3	 2	 40	   8	 0.0	 0.0	 	1	    0.90000	   -17.26710	 240.0	 1	  	1.05000	    0.95000;
	4	 1	 160	 32	 0.0	 0.0	  1	    1.10000	   -0.00000	   240.0	 1	    1.05000	    0.95000;
	5	 1	 240	 48	 0.0	 0.0	  1	    0.92617	    7.25883	   240.0	 1	    1.05000	    0.95000;
	6	 2	  0    0	 0.0	 0.0	  1	    0.90000	   -17.26710	 240.0	 1	    1.05000	    0.95000;
];

%% generator data
%	bus	Pg      Qg	Qmax	Qmin	Vg	mBase       status	Pmax	Pmin	pc1 pc2 qlcmin qlcmax qc2min qc2max ramp_agc ramp_10 ramp_30 ramp_q apf
mpc.gen = [
	1	 148	 54   48.0	 -10.0	 1.1	     100.0	 1	 160.0	 0.0	 0.0	 0.0	 0.0	 0.0	 0.0	 0.0	 0.0	 0.0	 0.0	 0.0	 0.0;
	3	 170	 -8	 101.0	 -10.0	 0.92617	 100.0	 1	 370.0	 0.0	 0.0	 0.0	 0.0	 0.0	 0.0	 0.0	 0.0	 0.0	 0.0	 0.0	 0.0;
	6	 0.0	 -4  183.0	 -10.0	 0.9	     100.0	 1	 610.0	 0.0	 0.0	 0.0	 0.0	 0.0	 0.0	 0.0	 0.0	 0.0	 0.0	 0.0	 0.0;
];

mpc.gencost = [
	2	 0.0	 0.0	 3	   0	   0.0	   0;
	2	 0.0	 0.0	 3	   0	   0.0     0;
	2	 0.0	 0.0	 3	   0	   0.0	   0;
];

%% branch data
%	fbus	tbus	r	x	b	rateA	rateB	rateC	ratio	angle
%	status angmin angmax
mpc.branch = [
	1   2   0.040   0.400   0.00   120  100  100  0  0  1 -60  60;
	1   4   0.060   0.600   0.00   100   80   80   0  0  1 -60  60;
	1   5   0.020   0.200   0.00   120  100  100  0  0  1 -60  60;
	2   3   0.020   0.200   0.00   120  100  100  0  0  1 -60  60;
  2   4   0.040   0.400   0.00   120  100  100  0  0  1 -60  60;
  3   5   0.020   0.200   0.00   120  100  100  0  0  1 -60  60;
];


%column_names%	f_bus	t_bus	br_r	br_x	br_b	rate_a	rate_b	rate_c	tap	shift	br_status	angmin	angmax	construction_cost
mpc.ne_branch = [
1   2   0.040   0.40	0.00   100 100  100  0.0	 0.0	 1	 -60  60	 40;
1   3   0.038   0.38	0.00   100 80   80   0.0	 0.0	 1	 -60  60	 38;
1   4   0.060   0.60	0.00   80  100  100  0.0	 0.0	 1	 -60  60	 60;
1   5   0.020   0.20	0.00   100 100  100  0.0	 0.0	 1	 -60  60	 20;
1   6   0.068   0.68	0.00   70  100  100  0.0	 0.0	 1	 -60  60	 68;
2   3   0.02   0.20	0.00    100  100  100  0.0	 0.0	 1	 -60  60	 20;
2   4   0.04   0.40	0.00    100  100  100  0.0	 0.0	 1	 -60  60	 40;
2   5   0.031   0.31	0.00   100  100  100  0.0	 0.0	 1	 -60  60	 31;
2   6   0.030   0.30	0.00   100  100  100  0.0	 0.0	 1	 -60  60	 30;
3   4   0.059   0.59	0.00   82   100  100  0.0	 0.0	 1	 -60  60	 59;
3   5   0.020   0.20	0.00   100  100  100  0.0	 0.0	 1	 -60  60	 20;
3   6   0.048   0.48	0.00   100  100  100  0.0	 0.0	 1	 -60  60	 48;
4   5   0.063   0.63	0.00   75  100  100  0.0	 0.0	 1	 -60  60	 63;
4   6   0.030   0.30	0.00   100  100  100  0.0	 0.0	 1	 -60  60	 30;
5   6   0.061   0.61	0.00   78  100  100  0.0	 0.0	 1	 -60  60	 61;

1   2   0.040   0.40	0.00   100 100  100  0.0	 0.0	 1	 -60  60	 40;
1   3   0.038   0.38	0.00   100 80   80    0.0	 0.0	 1	 -60  60	 38;
1   4   0.060   0.60	0.00   80  100  100  0.0	 0.0	 1	 -60  60	 60;
1   5   0.020   0.20	0.00   100 100  100  0.0	 0.0	 1	 -60  60	 20;
1   6   0.068   0.68	0.00   70  100  100  0.0	 0.0	 1	 -60  60	 68;
2   3   0.02   0.20	0.00   100  100  100  0.0	 0.0	 1	 -60  60	 20;
2   4   0.04   0.40	0.00   100  100  100  0.0	 0.0	 1	 -60  60	 40;
2   5   0.031   0.31	0.00   100  100  100  0.0	 0.0	 1	 -60  60	 31;
2   6   0.030   0.30	0.00   100  100  100  0.0	 0.0	 1	 -60  60	 30;
3   4   0.059   0.59	0.00   82   100  100  0.0	 0.0	 1	 -60  60	 59;
3   5   0.020   0.20	0.00   100  100  100  0.0	 0.0	 1	 -60  60	 20;
3   6   0.048   0.48	0.00   100  100  100  0.0	 0.0	 1	 -60  60	 48;
4   5   0.063   0.63	0.00   75  100  100  0.0	 0.0	 1	 -60  60	 63;
4   6   0.030   0.30	0.00   100  100  100  0.0	 0.0	 1	 -60  60	 30;
5   6   0.061   0.61	0.00   78  100  100  0.0	 0.0	 1	 -60  60	 61;

1   2   0.040   0.40	0.00   100 100  100  0.0	 0.0	 1	 -60  60	 40;
1   3   0.038   0.38	0.00   100 80   80    0.0	 0.0	 1	 -60  60	 38;
1   4   0.060   0.60	0.00   80  100  100  0.0	 0.0	 1	 -60  60	 60;
1   5   0.020   0.20	0.00   100 100  100  0.0	 0.0	 1	 -60  60	 20;
1   6   0.068   0.68	0.00   70  100  100  0.0	 0.0	 1	 -60  60	 68;
2   3   0.02   0.20	0.00   100  100  100  0.0	 0.0	 1	 -60  60	 20;
2   4   0.04   0.40	0.00   100  100  100  0.0	 0.0	 1	 -60  60	 40;
2   5   0.031   0.31	0.00   100  100  100  0.0	 0.0	 1	 -60  60	 31;
2   6   0.030   0.30	0.00   100  100  100  0.0	 0.0	 1	 -60  60	 30;
3   4   0.059   0.59	0.00   82   100  100  0.0	 0.0	 1	 -60  60	 59;
3   5   0.020   0.20	0.00   100  100  100  0.0	 0.0	 1	 -60  60	 20;
3   6   0.048   0.48	0.00   100  100  100  0.0	 0.0	 1	 -60  60	 48;
4   5   0.063   0.63	0.00   75  100  100  0.0	 0.0	 1	 -60  60	 63;
4   6   0.030   0.30	0.00   100  100  100  0.0	 0.0	 1	 -60  60	 30;
5   6   0.061   0.61	0.00   78  100  100  0.0	 0.0	 1	 -60  60	 61;

1   2   0.040   0.40	0.00   100 100  100  0.0	 0.0	 1	 -60  60	 40;
1   3   0.038   0.38	0.00   100 80   80    0.0	 0.0	 1	 -60  60	 38;
1   4   0.060   0.60	0.00   80  100  100  0.0	 0.0	 1	 -60  60	 60;
1   5   0.020   0.20	0.00   100 100  100  0.0	 0.0	 1	 -60  60	 20;
1   6   0.068   0.68	0.00   70  100  100  0.0	 0.0	 1	 -60  60	 68;
2   3   0.02   0.20	0.00   100  100  100  0.0	 0.0	 1	 -60  60	 20;
2   4   0.04   0.40	0.00   100  100  100  0.0	 0.0	 1	 -60  60	 40;
2   5   0.031   0.31	0.00   100  100  100  0.0	 0.0	 1	 -60  60	 31;
2   6   0.030   0.30	0.00   100  100  100  0.0	 0.0	 1	 -60  60	 30;
3   4   0.059   0.59	0.00   82   100  100  0.0	 0.0	 1	 -60  60	 59;
3   5   0.020   0.20	0.00   100  100  100  0.0	 0.0	 1	 -60  60	 20;
3   6   0.048   0.48	0.00   100  100  100  0.0	 0.0	 1	 -60  60	 48;
4   5   0.063   0.63	0.00   75  100  100  0.0	 0.0	 1	 -60  60	 63;
4   6   0.030   0.30	0.00   100  100  100  0.0	 0.0	 1	 -60  60	 30;
5   6   0.061   0.61	0.00   78  100  100  0.0	 0.0	 1	 -60  60	 61;

1   2   0.040   0.40	0.00   100 100  100  0.0	 0.0	 1	 -60  60	 40;
1   3   0.038   0.38	0.00   100 80   80    0.0	 0.0	 1	 -60  60	 38;
1   4   0.060   0.60	0.00   80  100  100  0.0	 0.0	 1	 -60  60	 60;
1   5   0.020   0.20	0.00   100 100  100  0.0	 0.0	 1	 -60  60	 20;
1   6   0.068   0.68	0.00   70  100  100  0.0	 0.0	 1	 -60  60	 68;
2   3   0.02   	0.20	0.00   100  100  100  0.0	 0.0	 1	 -60  60	 20;
2   4   0.04   	0.40	0.00   100  100  100  0.0	 0.0	 1	 -60  60	 40;
2   5   0.031   0.31	0.00   100  100  100  0.0	 0.0	 1	 -60  60	 31;
2   6   0.030   0.30	0.00   100  100  100  0.0	 0.0	 1	 -60  60	 30;
3   4   0.059   0.59	0.00   82   100  100  0.0	 0.0	 1	 -60  60	 59;
3   5   0.020   0.20	0.00   100  100  100  0.0	 0.0	 1	 -60  60	 20;
3   6   0.048   0.48	0.00   100  100  100  0.0	 0.0	 1	 -60  60	 48;
4   5   0.063   0.63	0.00   75  100  100  0.0	 0.0	 1	 -60  60	 63;
4   6   0.030   0.30	0.00   100  100  100  0.0	 0.0	 1	 -60  60	 30;
5   6   0.061   0.61	0.00   78  100  100  0.0	 0.0	 1	 -60  60	 61;
];
